REMARK  Name = 
REMARK  3 active torsions:
REMARK  status: ('A' for Active; 'I' for Inactive)
REMARK    1  A    between atoms: C1_1  and  C7_7
REMARK    2  A    between atoms: C3_3  and  C6_6
REMARK    3  A    between atoms: C17_17  and  N21_21
REMARK                            x       y       z     vdW  Elec       q    Type
REMARK                         _______ _______ _______ _____ _____    ______ ____
ROOT
ATOM      1  C1  UNK     0      -0.888   1.751   0.000  0.00  0.00    +0.000 A 
ATOM      2  O2  UNK     0      -0.005   0.732   0.000  0.00  0.00    +0.000 OA
ATOM      3  C3  UNK     0       1.193   1.348   0.000  0.00  0.00    +0.000 A 
ATOM      4  N4  UNK     0       1.042   2.611   0.000  0.00  0.00    +0.000 NA
ATOM      5  N5  UNK     0      -0.277   2.866   0.000  0.00  0.00    +0.000 NA
ENDROOT
BRANCH   1   6
ATOM      6  C7  UNK     0      -2.342   1.616   0.000  0.00  0.00    +0.000 A 
ATOM      7  C8  UNK     0      -3.125   2.698   0.000  0.00  0.00    +0.000 A 
ATOM      8  C9  UNK     0      -4.610   2.540   0.000  0.00  0.00    +0.000 A 
ATOM      9  C10 UNK     0      -5.162   1.321   0.000  0.00  0.00    +0.000 A 
ATOM     10  N11 UNK     0      -4.317   0.219   0.000  0.00  0.00    +0.000 N 
ATOM     11  C12 UNK     0      -2.987   0.330   0.000  0.00  0.00    +0.000 A 
ATOM     12  C13 UNK     0      -4.667  -1.108   0.000  0.00  0.00    +0.000 A 
ATOM     13  C14 UNK     0      -3.505  -1.773   0.000  0.00  0.00    +0.000 A 
ATOM     14  N15 UNK     0      -2.442  -0.816   0.000  0.00  0.00    +0.000 NA
ENDBRANCH   1   6
BRANCH   3  15
ATOM     15  C6  UNK     0       2.494   0.682   0.000  0.00  0.00    +0.000 A 
ATOM     16  C16 UNK     0       2.577  -0.648   0.000  0.00  0.00    +0.000 A 
ATOM     17  C17 UNK     0       3.898  -1.297   0.000  0.00  0.00    +0.000 A 
ATOM     18  C18 UNK     0       5.004  -0.553   0.000  0.00  0.00    +0.000 A 
ATOM     19  C19 UNK     0       4.907   0.906   0.000  0.00  0.00    +0.000 A 
ATOM     20  C20 UNK     0       3.713   1.493   0.000  0.00  0.00    +0.000 A 
BRANCH  17  21
ATOM     21  N21 UNK     0       3.998  -2.697   0.000  0.00  0.00    +0.000 N 
ATOM     22  C22 UNK     0       2.811  -3.504   0.000  0.00  0.00    +0.000 C 
ATOM     23  C23 UNK     0       5.290  -3.330   0.000  0.00  0.00    +0.000 C 
ENDBRANCH  17  21
ENDBRANCH   3  15
TORSDOF 3
