REMARK  3 active torsions:
REMARK  status: ('A' for Active; 'I' for Inactive)
REMARK    1  A    between atoms: C1_1  and  C7_7 
REMARK    2  A    between atoms: C3_3  and  C6_6 
REMARK    3  A    between atoms: C17_17  and  N21_21 
ROOT
HETATM    1  C1          0      -0.888   1.751   0.000  1.00  0.00     0.207 A 
HETATM    2  O2          0      -0.005   0.732   0.000  1.00  0.00    -0.268 OA
HETATM    3  C3          0       1.193   1.348   0.000  1.00  0.00     0.204 A 
HETATM    4  N4          0       1.042   2.611   0.000  1.00  0.00    -0.121 NA
HETATM    5  N5          0      -0.277   2.866   0.000  1.00  0.00    -0.121 NA
ENDROOT
BRANCH   1   6
HETATM    6  C7          0      -2.342   1.616   0.000  1.00  0.00     0.077 A 
HETATM    7  C12         0      -2.987   0.330   0.000  1.00  0.00     0.151 A 
HETATM    8  N11         0      -4.317   0.219   0.000  1.00  0.00    -0.288 N 
HETATM    9  N15         0      -2.442  -0.816   0.000  1.00  0.00    -0.225 NA
HETATM   10  C13         0      -4.667  -1.108   0.000  1.00  0.00     0.102 A 
HETATM   11  C10         0      -5.162   1.321   0.000  1.00  0.00     0.082 A 
HETATM   12  C14         0      -3.505  -1.773   0.000  1.00  0.00     0.120 A 
HETATM   13  C9          0      -4.610   2.540   0.000  1.00  0.00     0.019 A 
HETATM   14  C8          0      -3.125   2.698   0.000  1.00  0.00     0.008 A 
ENDBRANCH   1   6
BRANCH   3  15
HETATM   15  C6          0       2.494   0.682   0.000  1.00  0.00     0.044 A 
HETATM   16  C16         0       2.577  -0.648   0.000  1.00  0.00     0.021 A 
HETATM   17  C17         0       3.898  -1.297   0.000  1.00  0.00     0.056 A 
HETATM   18  C18         0       5.004  -0.553   0.000  1.00  0.00     0.017 A 
HETATM   19  C19         0       4.907   0.906   0.000  1.00  0.00     0.002 A 
HETATM   20  C20         0       3.713   1.493   0.000  1.00  0.00     0.004 A 
BRANCH  17  21
HETATM   21  N21         0       3.998  -2.697   0.000  1.00  0.00    -0.344 N 
HETATM   22  C23         0       5.290  -3.330   0.000  1.00  0.00     0.126 C 
HETATM   23  C22         0       2.811  -3.504   0.000  1.00  0.00     0.126 C 
ENDBRANCH  17  21
ENDBRANCH   3  15
TORSDOF 3
