REMARK  Name = 
REMARK  5 active torsions:
REMARK  status: ('A' for Active; 'I' for Inactive)
REMARK    1  A    between atoms: C1_1  and  C7_7
REMARK    2  A    between atoms: C3_3  and  C6_6
REMARK    3  A    between atoms: C6_6  and  C16_16
REMARK    4  A    between atoms: C16_16  and  C17_17
REMARK    5  A    between atoms: C17_17  and  C18_18
REMARK                            x       y       z     vdW  Elec       q    Type
REMARK                         _______ _______ _______ _____ _____    ______ ____
ROOT
ATOM      1  C1  UNK     0      -3.428   0.369   0.000  0.00  0.00    +0.000 A 
ATOM      2  O2  UNK     0      -2.506  -0.613   0.000  0.00  0.00    +0.000 OA
ATOM      3  C3  UNK     0      -1.316   0.043   0.000  0.00  0.00    +0.000 A 
ATOM      4  N4  UNK     0      -1.513   1.300   0.000  0.00  0.00    +0.000 NA
ATOM      5  N5  UNK     0      -2.850   1.509   0.000  0.00  0.00    +0.000 NA
ENDROOT
BRANCH   1   6
ATOM      6  C7  UNK     0      -4.898   0.195   0.000  0.00  0.00    +0.000 A 
ATOM      7  C8  UNK     0      -5.705   1.251   0.000  0.00  0.00    +0.000 A 
ATOM      8  C9  UNK     0      -7.189   1.065   0.000  0.00  0.00    +0.000 A 
ATOM      9  C10 UNK     0      -7.720  -0.164   0.000  0.00  0.00    +0.000 A 
ATOM     10  N11 UNK     0      -6.856  -1.248   0.000  0.00  0.00    +0.000 N 
ATOM     11  C12 UNK     0      -5.520  -1.119   0.000  0.00  0.00    +0.000 A 
ATOM     12  C13 UNK     0      -7.185  -2.582   0.000  0.00  0.00    +0.000 A 
ATOM     13  C14 UNK     0      -6.014  -3.229   0.000  0.00  0.00    +0.000 A 
ATOM     14  N15 UNK     0      -4.963  -2.253   0.000  0.00  0.00    +0.000 NA
ENDBRANCH   1   6
BRANCH   3  15
ATOM     15  C6  UNK     0       0.048  -0.625   0.000  0.00  0.00    +0.000 C 
BRANCH  15  16
ATOM     16  C16 UNK     0       1.217   0.413   0.000  0.00  0.00    +0.000 C 
BRANCH  16  17
ATOM     17  C17 UNK     0       2.532  -0.348   0.000  0.00  0.00    +0.000 C 
ATOM     18  O27 UNK     0       2.510  -1.584   0.000  0.00  0.00    +0.000 OA
BRANCH  17  19
ATOM     19  C18 UNK     0       3.842   0.342   0.000  0.00  0.00    +0.000 A 
ATOM     20  N19 UNK     0       5.086  -0.348   0.000  0.00  0.00    +0.000 NA
ATOM     21  C20 UNK     0       6.024   0.651   0.000  0.00  0.00    +0.000 A 
ATOM     22  C21 UNK     0       5.413   1.809   0.000  0.00  0.00    +0.000 A 
ATOM     23  N22 UNK     0       4.018   1.614   0.000  0.00  0.00    +0.000 NA
ATOM     24  C23 UNK     0       7.469   0.531   0.000  0.00  0.00    +0.000 A 
ATOM     25  C24 UNK     0       8.181   1.663   0.000  0.00  0.00    +0.000 A 
ATOM     26  C25 UNK     0       7.487   2.992   0.000  0.00  0.00    +0.000 A 
ATOM     27  C26 UNK     0       6.149   3.061   0.000  0.00  0.00    +0.000 A 
ENDBRANCH  17  19
ENDBRANCH  16  17
ENDBRANCH  15  16
ENDBRANCH   3  15
TORSDOF 5
