REMARK  5 active torsions:
REMARK  status: ('A' for Active; 'I' for Inactive)
REMARK    1  A    between atoms: C1_1  and  C7_7 
REMARK    2  A    between atoms: C3_3  and  C6_6 
REMARK    3  A    between atoms: C6_6  and  C16_16 
REMARK    4  A    between atoms: C16_16  and  C17_17 
REMARK    5  A    between atoms: C17_17  and  C18_18 
ROOT
HETATM    1  C1          0      -3.428   0.369   0.000  1.00  0.00     0.207 A 
HETATM    2  O2          0      -2.506  -0.613   0.000  1.00  0.00    -0.272 OA
HETATM    3  C3          0      -1.316   0.043   0.000  1.00  0.00     0.182 A 
HETATM    4  N4          0      -1.513   1.300   0.000  1.00  0.00    -0.126 NA
HETATM    5  N5          0      -2.850   1.509   0.000  1.00  0.00    -0.121 NA
ENDROOT
BRANCH   1   6
HETATM    6  C7          0      -4.898   0.195   0.000  1.00  0.00     0.077 A 
HETATM    7  C8          0      -5.705   1.251   0.000  1.00  0.00     0.008 A 
HETATM    8  C9          0      -7.189   1.065   0.000  1.00  0.00     0.019 A 
HETATM    9  C10         0      -7.720  -0.164   0.000  1.00  0.00     0.082 A 
HETATM   10  N11         0      -6.856  -1.248   0.000  1.00  0.00    -0.288 N 
HETATM   11  C13         0      -7.185  -2.582   0.000  1.00  0.00     0.102 A 
HETATM   12  C12         0      -5.520  -1.119   0.000  1.00  0.00     0.151 A 
HETATM   13  C14         0      -6.014  -3.229   0.000  1.00  0.00     0.120 A 
HETATM   14  N15         0      -4.963  -2.253   0.000  1.00  0.00    -0.225 NA
ENDBRANCH   1   6
BRANCH   3  15
HETATM   15  C6          0       0.048  -0.625   0.000  1.00  0.00     0.082 C 
BRANCH  15  16
HETATM   16  C16         0       1.217   0.413   0.000  1.00  0.00     0.081 C 
BRANCH  16  17
HETATM   17  C17         0       2.532  -0.348   0.000  1.00  0.00     0.209 C 
HETATM   18  O27         0       2.510  -1.584   0.000  1.00  0.00    -0.288 OA
BRANCH  17  19
HETATM   19  C18         0       3.842   0.342   0.000  1.00  0.00     0.198 A 
HETATM   20  N22         0       4.018   1.614   0.000  1.00  0.00    -0.223 NA
HETATM   21  C21         0       5.413   1.809   0.000  1.00  0.00     0.101 A 
HETATM   22  C26         0       6.149   3.061   0.000  1.00  0.00     0.021 A 
HETATM   23  C20         0       6.024   0.651   0.000  1.00  0.00     0.101 A 
HETATM   24  C25         0       7.487   2.992   0.000  1.00  0.00     0.002 A 
HETATM   25  C24         0       8.181   1.663   0.000  1.00  0.00     0.002 A 
HETATM   26  C23         0       7.469   0.531   0.000  1.00  0.00     0.021 A 
HETATM   27  N19         0       5.086  -0.348   0.000  1.00  0.00    -0.223 NA
ENDBRANCH  17  19
ENDBRANCH  16  17
ENDBRANCH  15  16
ENDBRANCH   3  15
TORSDOF 5
