REMARK  Name = 
REMARK  3 active torsions:
REMARK  status: ('A' for Active; 'I' for Inactive)
REMARK    1  A    between atoms: C1_1  and  C7_7
REMARK    2  A    between atoms: C3_3  and  C6_6
REMARK    3  A    between atoms: C6_6  and  N16_16
REMARK                            x       y       z     vdW  Elec       q    Type
REMARK                         _______ _______ _______ _____ _____    ______ ____
ROOT
ATOM      1  C1  UNK     0      -0.262   1.858   0.010  0.00  0.00    +0.000 A 
ATOM      2  O2  UNK     0       0.626   0.855  -0.020  0.00  0.00    +0.000 OA
ATOM      3  C3  UNK     0       1.823   1.469   0.063  0.00  0.00    +0.000 A 
ATOM      4  N4  UNK     0       1.660   2.730   0.126  0.00  0.00    +0.000 NA
ATOM      5  N5  UNK     0       0.336   2.978   0.091  0.00  0.00    +0.000 NA
ENDROOT
BRANCH   1   6
ATOM      6  C7  UNK     0      -1.710   1.698  -0.027  0.00  0.00    +0.000 A 
ATOM      7  C8  UNK     0      -2.520   2.756  -0.027  0.00  0.00    +0.000 A 
ATOM      8  C9  UNK     0      -4.001   2.556  -0.054  0.00  0.00    +0.000 A 
ATOM      9  C10 UNK     0      -4.518   1.321  -0.071  0.00  0.00    +0.000 A 
ATOM     10  N11 UNK     0      -3.641   0.244  -0.064  0.00  0.00    +0.000 N 
ATOM     11  C12 UNK     0      -2.316   0.393  -0.046  0.00  0.00    +0.000 A 
ATOM     12  C13 UNK     0      -3.951  -1.094  -0.070  0.00  0.00    +0.000 A 
ATOM     13  C14 UNK     0      -2.770  -1.724  -0.056  0.00  0.00    +0.000 A 
ATOM     14  N15 UNK     0      -1.737  -0.735  -0.040  0.00  0.00    +0.000 NA
ENDBRANCH   1   6
BRANCH   3  15
ATOM     15  C6  UNK     0       3.182   0.793   0.083  0.00  0.00    +0.000 C 
BRANCH  15  16
ATOM     16  N16 UNK     0       3.136  -0.650  -0.261  0.00  0.00    +0.000 NA
ATOM     17  C17 UNK     0       2.298  -1.414   0.696  0.00  0.00    +0.000 C 
ATOM     18  C18 UNK     0       2.247  -2.898   0.275  0.00  0.00    +0.000 C 
ATOM     19  C19 UNK     0       3.674  -3.468   0.298  0.00  0.00    +0.000 C 
ATOM     20  C20 UNK     0       4.548  -2.653  -0.666  0.00  0.00    +0.000 C 
ATOM     21  C21 UNK     0       4.525  -1.171  -0.240  0.00  0.00    +0.000 C 
ENDBRANCH  15  16
ENDBRANCH   3  15
TORSDOF 3
