REMARK  3 active torsions:
REMARK  status: ('A' for Active; 'I' for Inactive)
REMARK    1  A    between atoms: C1_1  and  C7_7 
REMARK    2  A    between atoms: C3_3  and  C6_6 
REMARK    3  A    between atoms: C6_6  and  N16_16 
ROOT
HETATM    1  C1          0      -0.262   1.858   0.010  1.00  0.00     0.207 A 
HETATM    2  O2          0       0.626   0.855  -0.020  1.00  0.00    -0.270 OA
HETATM    3  C3          0       1.823   1.469   0.063  1.00  0.00     0.215 A 
HETATM    4  N4          0       1.660   2.730   0.126  1.00  0.00    -0.123 NA
HETATM    5  N5          0       0.336   2.978   0.091  1.00  0.00    -0.121 NA
ENDROOT
BRANCH   1   6
HETATM    6  C7          0      -1.710   1.698  -0.027  1.00  0.00     0.077 A 
HETATM    7  C12         0      -2.316   0.393  -0.046  1.00  0.00     0.151 A 
HETATM    8  N15         0      -1.737  -0.735  -0.040  1.00  0.00    -0.225 NA
HETATM    9  N11         0      -3.641   0.244  -0.064  1.00  0.00    -0.288 N 
HETATM   10  C14         0      -2.770  -1.724  -0.056  1.00  0.00     0.120 A 
HETATM   11  C13         0      -3.951  -1.094  -0.070  1.00  0.00     0.102 A 
HETATM   12  C10         0      -4.518   1.321  -0.071  1.00  0.00     0.082 A 
HETATM   13  C9          0      -4.001   2.556  -0.054  1.00  0.00     0.019 A 
HETATM   14  C8          0      -2.520   2.756  -0.027  1.00  0.00     0.008 A 
ENDBRANCH   1   6
BRANCH   3  15
HETATM   15  C6          0       3.182   0.793   0.083  1.00  0.00     0.323 C 
BRANCH  15  16
HETATM   16  N16         0       3.136  -0.650  -0.261  1.00  0.00     0.145 N 
HETATM   17  C21         0       4.525  -1.171  -0.240  1.00  0.00     0.251 C 
HETATM   18  C20         0       4.548  -2.653  -0.666  1.00  0.00     0.035 C 
HETATM   19  C19         0       3.674  -3.468   0.298  1.00  0.00     0.004 C 
HETATM   20  C18         0       2.247  -2.898   0.275  1.00  0.00     0.035 C 
HETATM   21  C17         0       2.298  -1.414   0.696  1.00  0.00     0.251 C 
ENDBRANCH  15  16
ENDBRANCH   3  15
TORSDOF 3
