REMARK  Name = 
REMARK  2 active torsions:
REMARK  status: ('A' for Active; 'I' for Inactive)
REMARK    1  A    between atoms: C1_1  and  C2_2
REMARK    2  A    between atoms: C4_4  and  C7_7
REMARK                            x       y       z     vdW  Elec       q    Type
REMARK                         _______ _______ _______ _____ _____    ______ ____
ROOT
ATOM      1  C2  UNK     0      -1.519   0.985   0.033  0.00  0.00    +0.000 A 
ATOM      2  O3  UNK     0      -0.253   0.755   0.376  0.00  0.00    +0.000 OA
ATOM      3  C4  UNK     0       0.337   1.950   0.310  0.00  0.00    +0.000 A 
ATOM      4  N5  UNK     0      -0.507   2.836  -0.042  0.00  0.00    +0.000 NA
ATOM      5  N6  UNK     0      -1.697   2.219  -0.212  0.00  0.00    +0.000 NA
ENDROOT
BRANCH   3   6
ATOM      6  C7  UNK     0       1.794   2.224   0.621  0.00  0.00    +0.000 C 
ATOM      7  C8  UNK     0       2.494   0.998   1.296  0.00  0.00    +0.000 C 
ATOM      8  C9  UNK     0       3.966   1.372   1.634  0.00  0.00    +0.000 C 
ATOM      9  C10 UNK     0       4.721   1.728   0.323  0.00  0.00    +0.000 C 
ATOM     10  C11 UNK     0       4.029   2.940  -0.364  0.00  0.00    +0.000 C 
ATOM     11  C12 UNK     0       2.553   2.580  -0.693  0.00  0.00    +0.000 C 
ATOM     12  C13 UNK     0       2.488  -0.234   0.342  0.00  0.00    +0.000 C 
ATOM     13  C14 UNK     0       3.236   0.131  -0.968  0.00  0.00    +0.000 C 
ATOM     14  C15 UNK     0       4.707   0.504  -0.635  0.00  0.00    +0.000 C 
ATOM     15  C16 UNK     0       2.528   1.346  -1.656  0.00  0.00    +0.000 C 
ENDBRANCH   3   6
BRANCH   1  16
ATOM     16  C1  UNK     0      -2.532  -0.050  -0.051  0.00  0.00    +0.000 A 
ATOM     17  C17 UNK     0      -3.822   0.240  -0.243  0.00  0.00    +0.000 A 
ATOM     18  C18 UNK     0      -4.819  -0.871  -0.326  0.00  0.00    +0.000 A 
ATOM     19  C19 UNK     0      -4.426  -2.147  -0.223  0.00  0.00    +0.000 A 
ATOM     20  N20 UNK     0      -3.072  -2.402  -0.040  0.00  0.00    +0.000 N 
ATOM     21  C21 UNK     0      -2.168  -1.433   0.048  0.00  0.00    +0.000 A 
ATOM     22  C22 UNK     0      -2.449  -3.623   0.062  0.00  0.00    +0.000 A 
ATOM     23  C23 UNK     0      -1.150  -3.337   0.212  0.00  0.00    +0.000 A 
ATOM     24  N24 UNK     0      -1.002  -1.917   0.196  0.00  0.00    +0.000 NA
ENDBRANCH   1  16
TORSDOF 2
