REMARK  2 active torsions:
REMARK  status: ('A' for Active; 'I' for Inactive)
REMARK    1  A    between atoms: C1_1  and  C2_2 
REMARK    2  A    between atoms: C4_4  and  C7_7 
ROOT
HETATM    1  C1          0      -2.532  -0.050  -0.051  1.00  0.00     0.077 A 
HETATM    2  C17         0      -3.822   0.240  -0.243  1.00  0.00     0.008 A 
HETATM    3  C18         0      -4.819  -0.871  -0.326  1.00  0.00     0.019 A 
HETATM    4  C19         0      -4.426  -2.147  -0.223  1.00  0.00     0.082 A 
HETATM    5  N20         0      -3.072  -2.402  -0.040  1.00  0.00    -0.288 N 
HETATM    6  C21         0      -2.168  -1.433   0.048  1.00  0.00     0.151 A 
HETATM    7  C22         0      -2.449  -3.623   0.062  1.00  0.00     0.102 A 
HETATM    8  C23         0      -1.150  -3.337   0.212  1.00  0.00     0.120 A 
HETATM    9  N24         0      -1.002  -1.917   0.196  1.00  0.00    -0.225 NA
ENDROOT
BRANCH   1  10
HETATM   10  C2          0      -1.519   0.985   0.033  1.00  0.00     0.207 A 
HETATM   11  N6          0      -1.697   2.219  -0.212  1.00  0.00    -0.121 NA
HETATM   12  N5          0      -0.507   2.836  -0.042  1.00  0.00    -0.126 NA
HETATM   13  C4          0       0.337   1.950   0.310  1.00  0.00     0.181 A 
HETATM   14  O3          0      -0.253   0.755   0.376  1.00  0.00    -0.272 OA
BRANCH  13  15
HETATM   15  C7          0       1.794   2.224   0.621  1.00  0.00     0.066 C 
HETATM   16  C8          0       2.494   0.998   1.296  1.00  0.00     0.008 C 
HETATM   17  C13         0       2.488  -0.234   0.342  1.00  0.00     0.000 C 
HETATM   18  C9          0       3.966   1.372   1.634  1.00  0.00     0.000 C 
HETATM   19  C14         0       3.236   0.131  -0.968  1.00  0.00     0.000 C 
HETATM   20  C15         0       4.707   0.504  -0.635  1.00  0.00     0.000 C 
HETATM   21  C16         0       2.528   1.346  -1.656  1.00  0.00     0.000 C 
HETATM   22  C10         0       4.721   1.728   0.323  1.00  0.00     0.000 C 
HETATM   23  C11         0       4.029   2.940  -0.364  1.00  0.00     0.000 C 
HETATM   24  C12         0       2.553   2.580  -0.693  1.00  0.00     0.008 C 
ENDBRANCH  13  15
ENDBRANCH   1  10
TORSDOF 2
