REMARK  Name = 
REMARK  2 active torsions:
REMARK  status: ('A' for Active; 'I' for Inactive)
REMARK    1  A    between atoms: C1_1  and  C7_7
REMARK    2  A    between atoms: C3_3  and  C6_6
REMARK                            x       y       z     vdW  Elec       q    Type
REMARK                         _______ _______ _______ _____ _____    ______ ____
ROOT
ATOM      1  C1  UNK     0      -1.827   1.125   0.000  0.00  0.00    +0.000 A 
ATOM      2  O2  UNK     0      -0.944   0.108   0.000  0.00  0.00    +0.000 OA
ATOM      3  C3  UNK     0       0.255   0.724   0.000  0.00  0.00    +0.000 A 
ATOM      4  N4  UNK     0       0.105   1.987   0.000  0.00  0.00    +0.000 NA
ATOM      5  N5  UNK     0      -1.216   2.241   0.000  0.00  0.00    +0.000 NA
ENDROOT
BRANCH   3   6
ATOM      6  C6  UNK     0       1.554   0.052   0.000  0.00  0.00    +0.000 A 
ATOM      7  C16 UNK     0       1.627  -1.278   0.000  0.00  0.00    +0.000 A 
ATOM      8  C17 UNK     0       2.941  -1.936   0.000  0.00  0.00    +0.000 A 
ATOM      9  C18 UNK     0       4.049  -1.196   0.000  0.00  0.00    +0.000 A 
ATOM     10  C19 UNK     0       3.966   0.238   0.000  0.00  0.00    +0.000 A 
ATOM     11  C20 UNK     0       2.784   0.850   0.000  0.00  0.00    +0.000 A 
ATOM     12  N21 UNK     0       5.308  -1.789   0.000  0.00  0.00    +0.000 NA
ATOM     13  C22 UNK     0       6.362  -1.068   0.000  0.00  0.00    +0.000 A 
ATOM     14  N23 UNK     0       6.310   0.355   0.000  0.00  0.00    +0.000 NA
ATOM     15  C24 UNK     0       5.202   0.986   0.000  0.00  0.00    +0.000 A 
ENDBRANCH   3   6
BRANCH   1  16
ATOM     16  C7  UNK     0      -3.284   0.989   0.000  0.00  0.00    +0.000 A 
ATOM     17  C8  UNK     0      -4.068   2.069   0.000  0.00  0.00    +0.000 A 
ATOM     18  C9  UNK     0      -5.553   1.910   0.000  0.00  0.00    +0.000 A 
ATOM     19  C10 UNK     0      -6.105   0.691   0.000  0.00  0.00    +0.000 A 
ATOM     20  N11 UNK     0      -5.260  -0.411   0.000  0.00  0.00    +0.000 N 
ATOM     21  C12 UNK     0      -3.929  -0.299   0.000  0.00  0.00    +0.000 A 
ATOM     22  C13 UNK     0      -5.610  -1.738   0.000  0.00  0.00    +0.000 A 
ATOM     23  C14 UNK     0      -4.449  -2.403   0.000  0.00  0.00    +0.000 A 
ATOM     24  N15 UNK     0      -3.385  -1.446   0.000  0.00  0.00    +0.000 NA
ENDBRANCH   1  16
TORSDOF 2
