REMARK  2 active torsions:
REMARK  status: ('A' for Active; 'I' for Inactive)
REMARK    1  A    between atoms: C1_1  and  C7_7 
REMARK    2  A    between atoms: C3_3  and  C6_6 
ROOT
HETATM    1  C1          0      -1.827   1.125   0.000  1.00  0.00     0.207 A 
HETATM    2  O2          0      -0.944   0.108   0.000  1.00  0.00    -0.268 OA
HETATM    3  C3          0       0.255   0.724   0.000  1.00  0.00     0.204 A 
HETATM    4  N4          0       0.105   1.987   0.000  1.00  0.00    -0.121 NA
HETATM    5  N5          0      -1.216   2.241   0.000  1.00  0.00    -0.121 NA
ENDROOT
BRANCH   1   6
HETATM    6  C7          0      -3.284   0.989   0.000  1.00  0.00     0.077 A 
HETATM    7  C8          0      -4.068   2.069   0.000  1.00  0.00     0.008 A 
HETATM    8  C9          0      -5.553   1.910   0.000  1.00  0.00     0.019 A 
HETATM    9  C10         0      -6.105   0.691   0.000  1.00  0.00     0.082 A 
HETATM   10  N11         0      -5.260  -0.411   0.000  1.00  0.00    -0.288 N 
HETATM   11  C13         0      -5.610  -1.738   0.000  1.00  0.00     0.102 A 
HETATM   12  C12         0      -3.929  -0.299   0.000  1.00  0.00     0.151 A 
HETATM   13  C14         0      -4.449  -2.403   0.000  1.00  0.00     0.120 A 
HETATM   14  N15         0      -3.385  -1.446   0.000  1.00  0.00    -0.225 NA
ENDBRANCH   1   6
BRANCH   3  15
HETATM   15  C6          0       1.554   0.052   0.000  1.00  0.00     0.043 A 
HETATM   16  C16         0       1.627  -1.278   0.000  1.00  0.00     0.005 A 
HETATM   17  C17         0       2.941  -1.936   0.000  1.00  0.00     0.019 A 
HETATM   18  C18         0       4.049  -1.196   0.000  1.00  0.00     0.085 A 
HETATM   19  C19         0       3.966   0.238   0.000  1.00  0.00     0.037 A 
HETATM   20  N21         0       5.308  -1.789   0.000  1.00  0.00    -0.224 NA
HETATM   21  C20         0       2.784   0.850   0.000  1.00  0.00     0.007 A 
HETATM   22  C24         0       5.202   0.986   0.000  1.00  0.00     0.102 A 
HETATM   23  N23         0       6.310   0.355   0.000  1.00  0.00    -0.223 NA
HETATM   24  C22         0       6.362  -1.068   0.000  1.00  0.00     0.199 A 
ENDBRANCH   3  15
TORSDOF 2
