REMARK  Name = 11142
REMARK  3 active torsions:
REMARK  status: ('A' for Active; 'I' for Inactive)
REMARK    1  A    between atoms: C_1  and  C_2
REMARK    2  A    between atoms: C_2  and  C_6
REMARK    3  A    between atoms: C_2  and  C_7
REMARK                            x       y       z     vdW  Elec       q    Type
REMARK                         _______ _______ _______ _____ _____    ______ ____
ROOT
ATOM      1  C   UNL     1       0.750  -0.029  -0.371  0.00  0.00    +0.000 C 
ATOM      3  C   UNL     1      -0.035  -1.282   0.062  0.00  0.00    +0.000 C 
ATOM      4  C   UNL     1      -1.482  -1.236  -0.435  0.00  0.00    +0.000 C 
ATOM      5  C   UNL     1      -0.053   1.231  -0.160  0.00  0.00    +0.000 C 
ATOM      8  C   UNL     1      -2.178   0.025   0.019  0.00  0.00    +0.000 C 
ATOM      9  C   UNL     1      -1.380   1.237   0.038  0.00  0.00    +0.000 C 
ATOM     10  C   UNL     1      -3.470   0.030   0.380  0.00  0.00    +0.000 C 
ENDROOT
BRANCH   1   2
ATOM      2  C   UNL     1       2.082   0.039   0.376  0.00  0.00    +0.000 C 
ATOM      6  C   UNL     1       2.869  -1.255   0.184  0.00  0.00    +0.000 C 
ATOM      7  C   UNL     1       2.898   1.241  -0.093  0.00  0.00    +0.000 C 
ENDBRANCH   1   2
TORSDOF 1
