REMARK  Name = 
REMARK  2 active torsions:
REMARK  status: ('A' for Active; 'I' for Inactive)
REMARK    1  A    between atoms: C1_1  and  C7_7
REMARK    2  A    between atoms: C3_3  and  C6_6
REMARK                            x       y       z     vdW  Elec       q    Type
REMARK                         _______ _______ _______ _____ _____    ______ ____
ROOT
ATOM      1  C1  UNK     0      -0.618   1.106   0.000  0.00  0.00    +0.000 A 
ATOM      2  O2  UNK     0       0.282   0.106   0.000  0.00  0.00    +0.000 OA
ATOM      3  C3  UNK     0       1.468   0.742   0.000  0.00  0.00    +0.000 A 
ATOM      4  N4  UNK     0       1.296   2.002   0.000  0.00  0.00    +0.000 NA
ATOM      5  N5  UNK     0      -0.029   2.233   0.000  0.00  0.00    +0.000 NA
ENDROOT
BRANCH   1   6
ATOM      6  C7  UNK     0      -2.069   0.941   0.000  0.00  0.00    +0.000 A 
ATOM      7  C8  UNK     0      -2.876   2.004   0.000  0.00  0.00    +0.000 A 
ATOM      8  C9  UNK     0      -4.356   1.813   0.000  0.00  0.00    +0.000 A 
ATOM      9  C10 UNK     0      -4.882   0.582   0.000  0.00  0.00    +0.000 A 
ATOM     10  N11 UNK     0      -4.012  -0.501   0.000  0.00  0.00    +0.000 N 
ATOM     11  C12 UNK     0      -2.685  -0.360   0.000  0.00  0.00    +0.000 A 
ATOM     12  C13 UNK     0      -4.333  -1.835   0.000  0.00  0.00    +0.000 A 
ATOM     13  C14 UNK     0      -3.157  -2.475   0.000  0.00  0.00    +0.000 A 
ATOM     14  N15 UNK     0      -2.115  -1.494   0.000  0.00  0.00    +0.000 NA
ENDBRANCH   1   6
BRANCH   3  15
ATOM     15  C6  UNK     0       2.776   0.092   0.000  0.00  0.00    +0.000 A 
ATOM     16  C16 UNK     0       2.867  -1.236   0.000  0.00  0.00    +0.000 A 
ATOM     17  N17 UNK     0       4.129  -1.848   0.000  0.00  0.00    +0.000 NA
ATOM     18  C18 UNK     0       5.185  -1.139   0.000  0.00  0.00    +0.000 A 
ATOM     19  C19 UNK     0       5.082   0.321   0.000  0.00  0.00    +0.000 A 
ATOM     20  N20 UNK     0       3.938   0.874   0.000  0.00  0.00    +0.000 NA
ENDBRANCH   3  15
TORSDOF 2
