REMARK  2 active torsions:
REMARK  status: ('A' for Active; 'I' for Inactive)
REMARK    1  A    between atoms: C1_1  and  C7_7 
REMARK    2  A    between atoms: C3_3  and  C6_6 
ROOT
HETATM    1  C1          0      -0.618   1.106   0.000  1.00  0.00     0.207 A 
HETATM    2  O2          0       0.282   0.106   0.000  1.00  0.00    -0.267 OA
HETATM    3  C3          0       1.468   0.742   0.000  1.00  0.00     0.224 A 
HETATM    4  N4          0       1.296   2.002   0.000  1.00  0.00    -0.119 NA
HETATM    5  N5          0      -0.029   2.233   0.000  1.00  0.00    -0.121 NA
ENDROOT
BRANCH   1   6
HETATM    6  C7          0      -2.069   0.941   0.000  1.00  0.00     0.077 A 
HETATM    7  C12         0      -2.685  -0.360   0.000  1.00  0.00     0.151 A 
HETATM    8  N15         0      -2.115  -1.494   0.000  1.00  0.00    -0.225 NA
HETATM    9  N11         0      -4.012  -0.501   0.000  1.00  0.00    -0.288 N 
HETATM   10  C14         0      -3.157  -2.475   0.000  1.00  0.00     0.120 A 
HETATM   11  C13         0      -4.333  -1.835   0.000  1.00  0.00     0.102 A 
HETATM   12  C10         0      -4.882   0.582   0.000  1.00  0.00     0.082 A 
HETATM   13  C9          0      -4.356   1.813   0.000  1.00  0.00     0.019 A 
HETATM   14  C8          0      -2.876   2.004   0.000  1.00  0.00     0.008 A 
ENDBRANCH   1   6
BRANCH   3  15
HETATM   15  C6          0       2.776   0.092   0.000  1.00  0.00     0.143 A 
HETATM   16  C16         0       2.867  -1.236   0.000  1.00  0.00     0.122 A 
HETATM   17  N17         0       4.129  -1.848   0.000  1.00  0.00    -0.239 NA
HETATM   18  C18         0       5.185  -1.139   0.000  1.00  0.00     0.120 A 
HETATM   19  C19         0       5.082   0.321   0.000  1.00  0.00     0.120 A 
HETATM   20  N20         0       3.938   0.874   0.000  1.00  0.00    -0.237 NA
ENDBRANCH   3  15
TORSDOF 2
