REMARK  2 active torsions:
REMARK  status: ('A' for Active; 'I' for Inactive)
REMARK    1  A    between atoms: C1_1  and  C7_7 
REMARK    2  A    between atoms: C3_3  and  C6_6 
ROOT
HETATM    1  C1          0      -0.482   1.101   0.000  1.00  0.00     0.207 A 
HETATM    2  O2          0       0.425   0.109   0.000  1.00  0.00    -0.267 OA
HETATM    3  C3          0       1.606   0.753   0.000  1.00  0.00     0.228 A 
HETATM    4  N4          0       1.425   2.012   0.000  1.00  0.00    -0.119 NA
HETATM    5  N5          0       0.098   2.233   0.000  1.00  0.00    -0.121 NA
ENDROOT
BRANCH   1   6
HETATM    6  C7          0      -1.931   0.921   0.000  1.00  0.00     0.077 A 
HETATM    7  C12         0      -2.532  -0.387   0.000  1.00  0.00     0.151 A 
HETATM    8  N15         0      -1.947  -1.514   0.000  1.00  0.00    -0.225 NA
HETATM    9  N11         0      -3.856  -0.544   0.000  1.00  0.00    -0.288 N 
HETATM   10  C14         0      -2.977  -2.507   0.000  1.00  0.00     0.120 A 
HETATM   11  C13         0      -4.161  -1.883   0.000  1.00  0.00     0.102 A 
HETATM   12  C10         0      -4.739   0.529   0.000  1.00  0.00     0.082 A 
HETATM   13  C9          0      -4.228   1.766   0.000  1.00  0.00     0.019 A 
HETATM   14  C8          0      -2.750   1.974   0.000  1.00  0.00     0.008 A 
ENDBRANCH   1   6
BRANCH   3  15
HETATM   15  C6          0       2.918   0.110   0.000  1.00  0.00     0.144 A 
HETATM   16  N16         0       3.124  -1.151   0.000  1.00  0.00    -0.260 NA
HETATM   17  C17         0       4.562  -1.488   0.000  1.00  0.00     0.138 A 
HETATM   18  C18         0       5.369  -0.412   0.000  1.00  0.00     0.090 A 
HETATM   19  S19         0       4.364   0.912   0.000  1.00  0.00    -0.090 SA
ENDBRANCH   3  15
TORSDOF 2
