REMARK  Name = 5320250
REMARK  6 active torsions:
REMARK  status: ('A' for Active; 'I' for Inactive)
REMARK    1  A    between atoms: C_1  and  C_3
REMARK    2  A    between atoms: C_1  and  C_4
REMARK    3  A    between atoms: C_2  and  C_6
REMARK    4  A    between atoms: C_2  and  C_7
REMARK    5  A    between atoms: C_5  and  C_8
REMARK    6  A    between atoms: C_5  and  C_9
REMARK                            x       y       z     vdW  Elec       q    Type
REMARK                         _______ _______ _______ _____ _____    ______ ____
ROOT
ATOM      1  C   UNL     1      -0.387  -0.983  -1.006  0.00  0.00    +0.000 C 
ENDROOT
BRANCH   1   3
ATOM      2  C   UNL     1      -2.413   0.093   0.141  0.00  0.00    +0.000 C 
ATOM      3  C   UNL     1      -1.523  -0.904  -0.027  0.00  0.00    +0.000 C 
ATOM      6  C   UNL     1      -3.530   0.108   1.145  0.00  0.00    +0.000 C 
ATOM      7  C   UNL     1      -2.342   1.327  -0.720  0.00  0.00    +0.000 C 
ENDBRANCH   1   3
BRANCH   1   4
ATOM      4  C   UNL     1       0.913  -1.296  -0.315  0.00  0.00    +0.000 C 
ATOM      5  C   UNL     1       1.881  -0.441   0.075  0.00  0.00    +0.000 C 
ATOM      8  C   UNL     1       3.156  -0.868   0.754  0.00  0.00    +0.000 C 
BRANCH   5   9
ATOM      9  C   UNL     1       1.698   0.988  -0.181  0.00  0.00    +0.000 C 
ATOM     10  C   UNL     1       2.546   1.976   0.133  0.00  0.00    +0.000 C 
ENDBRANCH   5   9
ENDBRANCH   1   4
TORSDOF 3
