REMARK  Name = 
REMARK  2 active torsions:
REMARK  status: ('A' for Active; 'I' for Inactive)
REMARK    1  A    between atoms: C1_1  and  C7_7
REMARK    2  A    between atoms: C3_3  and  C6_6
REMARK                            x       y       z     vdW  Elec       q    Type
REMARK                         _______ _______ _______ _____ _____    ______ ____
ROOT
ATOM      1  C1  UNK     0      -0.482   1.101   0.000  0.00  0.00    +0.000 A 
ATOM      2  O2  UNK     0       0.425   0.109   0.000  0.00  0.00    +0.000 OA
ATOM      3  C3  UNK     0       1.606   0.753   0.000  0.00  0.00    +0.000 A 
ATOM      4  N4  UNK     0       1.425   2.012   0.000  0.00  0.00    +0.000 NA
ATOM      5  N5  UNK     0       0.098   2.233   0.000  0.00  0.00    +0.000 NA
ENDROOT
BRANCH   1   6
ATOM      6  C7  UNK     0      -1.931   0.921   0.000  0.00  0.00    +0.000 A 
ATOM      7  C8  UNK     0      -2.750   1.974   0.000  0.00  0.00    +0.000 A 
ATOM      8  C9  UNK     0      -4.228   1.766   0.000  0.00  0.00    +0.000 A 
ATOM      9  C10 UNK     0      -4.739   0.529   0.000  0.00  0.00    +0.000 A 
ATOM     10  N11 UNK     0      -3.856  -0.544   0.000  0.00  0.00    +0.000 N 
ATOM     11  C12 UNK     0      -2.532  -0.387   0.000  0.00  0.00    +0.000 A 
ATOM     12  C13 UNK     0      -4.161  -1.883   0.000  0.00  0.00    +0.000 A 
ATOM     13  C14 UNK     0      -2.977  -2.507   0.000  0.00  0.00    +0.000 A 
ATOM     14  N15 UNK     0      -1.947  -1.514   0.000  0.00  0.00    +0.000 NA
ENDBRANCH   1   6
BRANCH   3  15
ATOM     15  C6  UNK     0       2.918   0.110   0.000  0.00  0.00    +0.000 A 
ATOM     16  N16 UNK     0       3.124  -1.151   0.000  0.00  0.00    +0.000 NA
ATOM     17  C17 UNK     0       4.562  -1.488   0.000  0.00  0.00    +0.000 A 
ATOM     18  C18 UNK     0       5.369  -0.412   0.000  0.00  0.00    +0.000 A 
ATOM     19  S19 UNK     0       4.364   0.912   0.000  0.00  0.00    +0.000 S 
ENDBRANCH   3  15
TORSDOF 2
