REMARK  Name = 
REMARK  2 active torsions:
REMARK  status: ('A' for Active; 'I' for Inactive)
REMARK    1  A    between atoms: C1_1  and  C7_7
REMARK    2  A    between atoms: C3_3  and  C6_6
REMARK                            x       y       z     vdW  Elec       q    Type
REMARK                         _______ _______ _______ _____ _____    ______ ____
ROOT
ATOM      1  C1  UNK     0      -1.831   1.126   0.000  0.00  0.00    +0.000 A 
ATOM      2  O2  UNK     0      -0.946   0.110   0.000  0.00  0.00    +0.000 OA
ATOM      3  C3  UNK     0       0.252   0.727   0.000  0.00  0.00    +0.000 A 
ATOM      4  N4  UNK     0       0.100   1.989   0.000  0.00  0.00    +0.000 NA
ATOM      5  N5  UNK     0      -1.221   2.242   0.000  0.00  0.00    +0.000 NA
ENDROOT
BRANCH   3   6
ATOM      6  C6  UNK     0       1.552   0.057   0.000  0.00  0.00    +0.000 A 
ATOM      7  C16 UNK     0       1.626  -1.273   0.000  0.00  0.00    +0.000 A 
ATOM      8  C17 UNK     0       2.939  -1.932   0.000  0.00  0.00    +0.000 A 
ATOM      9  C18 UNK     0       4.051  -1.196   0.000  0.00  0.00    +0.000 A 
ATOM     10  C19 UNK     0       3.965   0.250   0.000  0.00  0.00    +0.000 A 
ATOM     11  C20 UNK     0       2.781   0.857   0.000  0.00  0.00    +0.000 A 
ATOM     12  N21 UNK     0       5.310  -1.810   0.000  0.00  0.00    +0.000 NA
ATOM     13  C22 UNK     0       6.383  -1.117   0.000  0.00  0.00    +0.000 A 
ATOM     14  C23 UNK     0       6.354   0.363   0.000  0.00  0.00    +0.000 A 
ATOM     15  C24 UNK     0       5.194   1.016   0.000  0.00  0.00    +0.000 A 
ENDBRANCH   3   6
BRANCH   1  16
ATOM     16  C7  UNK     0      -3.288   0.988   0.000  0.00  0.00    +0.000 A 
ATOM     17  C8  UNK     0      -4.072   2.068   0.000  0.00  0.00    +0.000 A 
ATOM     18  C9  UNK     0      -5.557   1.909   0.000  0.00  0.00    +0.000 A 
ATOM     19  C10 UNK     0      -6.109   0.690   0.000  0.00  0.00    +0.000 A 
ATOM     20  N11 UNK     0      -5.263  -0.412   0.000  0.00  0.00    +0.000 N 
ATOM     21  C12 UNK     0      -3.933  -0.300   0.000  0.00  0.00    +0.000 A 
ATOM     22  C13 UNK     0      -5.614  -1.739   0.000  0.00  0.00    +0.000 A 
ATOM     23  C14 UNK     0      -4.452  -2.404   0.000  0.00  0.00    +0.000 A 
ATOM     24  N15 UNK     0      -3.388  -1.447   0.000  0.00  0.00    +0.000 NA
ENDBRANCH   1  16
TORSDOF 2
