REMARK  2 active torsions:
REMARK  status: ('A' for Active; 'I' for Inactive)
REMARK    1  A    between atoms: C1_1  and  C7_7 
REMARK    2  A    between atoms: C3_3  and  C6_6 
ROOT
HETATM    1  C1          0      -1.831   1.126   0.000  1.00  0.00     0.207 A 
HETATM    2  O2          0      -0.946   0.110   0.000  1.00  0.00    -0.268 OA
HETATM    3  C3          0       0.252   0.727   0.000  1.00  0.00     0.204 A 
HETATM    4  N4          0       0.100   1.989   0.000  1.00  0.00    -0.121 NA
HETATM    5  N5          0      -1.221   2.242   0.000  1.00  0.00    -0.121 NA
ENDROOT
BRANCH   1   6
HETATM    6  C7          0      -3.288   0.988   0.000  1.00  0.00     0.077 A 
HETATM    7  C8          0      -4.072   2.068   0.000  1.00  0.00     0.008 A 
HETATM    8  C9          0      -5.557   1.909   0.000  1.00  0.00     0.019 A 
HETATM    9  C10         0      -6.109   0.690   0.000  1.00  0.00     0.082 A 
HETATM   10  N11         0      -5.263  -0.412   0.000  1.00  0.00    -0.288 N 
HETATM   11  C13         0      -5.614  -1.739   0.000  1.00  0.00     0.102 A 
HETATM   12  C12         0      -3.933  -0.300   0.000  1.00  0.00     0.151 A 
HETATM   13  C14         0      -4.452  -2.404   0.000  1.00  0.00     0.120 A 
HETATM   14  N15         0      -3.388  -1.447   0.000  1.00  0.00    -0.225 NA
ENDBRANCH   1   6
BRANCH   3  15
HETATM   15  C6          0       1.552   0.057   0.000  1.00  0.00     0.043 A 
HETATM   16  C16         0       1.626  -1.273   0.000  1.00  0.00     0.005 A 
HETATM   17  C17         0       2.939  -1.932   0.000  1.00  0.00     0.019 A 
HETATM   18  C18         0       4.051  -1.196   0.000  1.00  0.00     0.081 A 
HETATM   19  C19         0       3.965   0.250   0.000  1.00  0.00     0.018 A 
HETATM   20  N21         0       5.310  -1.810   0.000  1.00  0.00    -0.244 NA
HETATM   21  C20         0       2.781   0.857   0.000  1.00  0.00     0.005 A 
HETATM   22  C24         0       5.194   1.016   0.000  1.00  0.00     0.003 A 
HETATM   23  C23         0       6.354   0.363   0.000  1.00  0.00     0.021 A 
HETATM   24  C22         0       6.383  -1.117   0.000  1.00  0.00     0.099 A 
ENDBRANCH   3  15
TORSDOF 2
