REMARK  Name = 31289
REMARK  8 active torsions:
REMARK  status: ('A' for Active; 'I' for Inactive)
REMARK    1  A    between atoms: C_2  and  C_3
REMARK    2  A    between atoms: C_2  and  C_4
REMARK    3  A    between atoms: C_3  and  C_5
REMARK    4  A    between atoms: C_4  and  C_6
REMARK    5  A    between atoms: C_5  and  C_7
REMARK    6  A    between atoms: C_6  and  C_8
REMARK    7  A    between atoms: C_7  and  C_9
REMARK    8  A    between atoms: C_8  and  C_10
REMARK                            x       y       z     vdW  Elec       q    Type
REMARK                         _______ _______ _______ _____ _____    ______ ____
ROOT
ATOM      2  C   UNL     1       0.490  -0.272  -0.044  0.00  0.00    +0.000 C 
ENDROOT
BRANCH   2   3
ATOM      3  C   UNL     1       1.809   0.502   0.001  0.00  0.00    +0.000 C 
BRANCH   3   5
ATOM      5  C   UNL     1       3.046  -0.401  -0.008  0.00  0.00    +0.000 C 
BRANCH   5   7
ATOM      7  C   UNL     1       4.363   0.373   0.062  0.00  0.00    +0.000 C 
ATOM      9  C   UNL     1       5.560  -0.562  -0.023  0.00  0.00    +0.000 C 
ENDBRANCH   5   7
ENDBRANCH   3   5
ENDBRANCH   2   3
BRANCH   2   4
ATOM      4  C   UNL     1      -0.711   0.676  -0.001  0.00  0.00    +0.000 C 
BRANCH   4   6
ATOM      6  C   UNL     1      -2.032  -0.100  -0.013  0.00  0.00    +0.000 C 
BRANCH   6   8
ATOM      8  C   UNL     1      -3.249   0.821  -0.005  0.00  0.00    +0.000 C 
BRANCH   8  10
ATOM      1  O   UNL     1      -4.702  -1.128   0.042  0.00  0.00    +0.000 OA
ATOM     10  C   UNL     1      -4.572   0.090  -0.011  0.00  0.00    +0.000 C 
ENDBRANCH   8  10
ENDBRANCH   6   8
ENDBRANCH   4   6
ENDBRANCH   2   4
TORSDOF 7
