REMARK  2 active torsions:
REMARK  status: ('A' for Active; 'I' for Inactive)
REMARK    1  A    between atoms: C1_1  and  C7_7 
REMARK    2  A    between atoms: C3_3  and  C6_6 
ROOT
HETATM    1  C1          0      -0.632   1.108   0.000  1.00  0.00     0.207 A 
HETATM    2  O2          0       0.266   0.108   0.000  1.00  0.00    -0.268 OA
HETATM    3  C3          0       1.453   0.741   0.000  1.00  0.00     0.205 A 
HETATM    4  N4          0       1.283   2.001   0.000  1.00  0.00    -0.121 NA
HETATM    5  N5          0      -0.041   2.235   0.000  1.00  0.00    -0.121 NA
ENDROOT
BRANCH   1   6
HETATM    6  C7          0      -2.083   0.944   0.000  1.00  0.00     0.077 A 
HETATM    7  C12         0      -2.698  -0.357   0.000  1.00  0.00     0.151 A 
HETATM    8  N15         0      -2.127  -1.490   0.000  1.00  0.00    -0.225 NA
HETATM    9  N11         0      -4.025  -0.498   0.000  1.00  0.00    -0.288 N 
HETATM   10  C14         0      -3.168  -2.472   0.000  1.00  0.00     0.120 A 
HETATM   11  C13         0      -4.345  -1.834   0.000  1.00  0.00     0.102 A 
HETATM   12  C10         0      -4.895   0.584   0.000  1.00  0.00     0.082 A 
HETATM   13  C9          0      -4.370   1.815   0.000  1.00  0.00     0.019 A 
HETATM   14  C8          0      -2.890   2.007   0.000  1.00  0.00     0.008 A 
ENDBRANCH   1   6
BRANCH   3  15
HETATM   15  C6          0       2.758   0.088   0.000  1.00  0.00     0.046 A 
HETATM   16  C16         0       2.855  -1.236   0.000  1.00  0.00     0.024 A 
HETATM   17  C17         0       4.185  -1.852   0.000  1.00  0.00     0.099 A 
HETATM   18  N18         0       5.235  -1.128   0.000  1.00  0.00    -0.242 NA
HETATM   19  C19         0       5.157   0.278   0.000  1.00  0.00     0.099 A 
HETATM   20  C20         0       3.973   0.889   0.000  1.00  0.00     0.024 A 
ENDBRANCH   3  15
TORSDOF 2
