REMARK  Name = 
REMARK  2 active torsions:
REMARK  status: ('A' for Active; 'I' for Inactive)
REMARK    1  A    between atoms: C1_1  and  C7_7
REMARK    2  A    between atoms: C3_3  and  C6_6
REMARK                            x       y       z     vdW  Elec       q    Type
REMARK                         _______ _______ _______ _____ _____    ______ ____
ROOT
ATOM      1  C1  UNK     0      -0.632   1.108   0.000  0.00  0.00    +0.000 A 
ATOM      2  O2  UNK     0       0.266   0.108   0.000  0.00  0.00    +0.000 OA
ATOM      3  C3  UNK     0       1.453   0.741   0.000  0.00  0.00    +0.000 A 
ATOM      4  N4  UNK     0       1.283   2.001   0.000  0.00  0.00    +0.000 NA
ATOM      5  N5  UNK     0      -0.041   2.235   0.000  0.00  0.00    +0.000 NA
ENDROOT
BRANCH   1   6
ATOM      6  C7  UNK     0      -2.083   0.944   0.000  0.00  0.00    +0.000 A 
ATOM      7  C8  UNK     0      -2.890   2.007   0.000  0.00  0.00    +0.000 A 
ATOM      8  C9  UNK     0      -4.370   1.815   0.000  0.00  0.00    +0.000 A 
ATOM      9  C10 UNK     0      -4.895   0.584   0.000  0.00  0.00    +0.000 A 
ATOM     10  N11 UNK     0      -4.025  -0.498   0.000  0.00  0.00    +0.000 N 
ATOM     11  C12 UNK     0      -2.698  -0.357   0.000  0.00  0.00    +0.000 A 
ATOM     12  C13 UNK     0      -4.345  -1.834   0.000  0.00  0.00    +0.000 A 
ATOM     13  C14 UNK     0      -3.168  -2.472   0.000  0.00  0.00    +0.000 A 
ATOM     14  N15 UNK     0      -2.127  -1.490   0.000  0.00  0.00    +0.000 NA
ENDBRANCH   1   6
BRANCH   3  15
ATOM     15  C6  UNK     0       2.758   0.088   0.000  0.00  0.00    +0.000 A 
ATOM     16  C16 UNK     0       2.855  -1.236   0.000  0.00  0.00    +0.000 A 
ATOM     17  C17 UNK     0       4.185  -1.852   0.000  0.00  0.00    +0.000 A 
ATOM     18  N18 UNK     0       5.235  -1.128   0.000  0.00  0.00    +0.000 NA
ATOM     19  C19 UNK     0       5.157   0.278   0.000  0.00  0.00    +0.000 A 
ATOM     20  C20 UNK     0       3.973   0.889   0.000  0.00  0.00    +0.000 A 
ENDBRANCH   3  15
TORSDOF 2
