REMARK  Name = 
REMARK  3 active torsions:
REMARK  status: ('A' for Active; 'I' for Inactive)
REMARK    1  A    between atoms: C1_1  and  C7_7
REMARK    2  A    between atoms: C3_3  and  C6_6
REMARK    3  A    between atoms: C19_19  and  C21_21
REMARK                            x       y       z     vdW  Elec       q    Type
REMARK                         _______ _______ _______ _____ _____    ______ ____
ROOT
ATOM      1  C6  UNK     0      -0.176  -0.590   0.000  0.00  0.00    +0.000 A 
ATOM      2  C16 UNK     0      -0.101  -1.916   0.000  0.00  0.00    +0.000 A 
ATOM      3  C17 UNK     0       1.207  -2.558   0.000  0.00  0.00    +0.000 A 
ATOM      4  N18 UNK     0       2.275  -1.864   0.000  0.00  0.00    +0.000 NA
ATOM      5  C19 UNK     0       2.250  -0.456   0.000  0.00  0.00    +0.000 A 
ATOM      6  C20 UNK     0       1.080   0.196   0.000  0.00  0.00    +0.000 A 
ENDROOT
BRANCH   5   7
ATOM      7  C21 UNK     0       3.546   0.258   0.000  0.00  0.00    +0.000 A 
ATOM      8  C22 UNK     0       4.674  -0.465   0.000  0.00  0.00    +0.000 A 
ATOM      9  C23 UNK     0       5.933   0.244   0.000  0.00  0.00    +0.000 A 
ATOM     10  C24 UNK     0       5.996   1.548   0.000  0.00  0.00    +0.000 A 
ATOM     11  C25 UNK     0       4.806   2.383   0.000  0.00  0.00    +0.000 A 
ATOM     12  C26 UNK     0       3.616   1.761   0.000  0.00  0.00    +0.000 A 
ATOM     13  C27 UNK     0       7.288  -0.311   0.000  0.00  0.00    +0.000 A 
ATOM     14  C28 UNK     0       8.122   0.743   0.000  0.00  0.00    +0.000 A 
ATOM     15  N29 UNK     0       7.322   1.916   0.000  0.00  0.00    +0.000 N 
ATOM     16  C30 UNK     0       7.820   3.261   0.000  0.00  0.00    +0.000 C 
ENDBRANCH   5   7
BRANCH   1  19
ATOM     17  C1  UNK     0      -3.617   0.386   0.000  0.00  0.00    +0.000 A 
ATOM     18  O2  UNK     0      -2.696  -0.598   0.000  0.00  0.00    +0.000 OA
ATOM     19  C3  UNK     0      -1.504   0.059   0.000  0.00  0.00    +0.000 A 
ATOM     20  N4  UNK     0      -1.701   1.316   0.000  0.00  0.00    +0.000 NA
ATOM     21  N5  UNK     0      -3.038   1.525   0.000  0.00  0.00    +0.000 NA
BRANCH  17  22
ATOM     22  C7  UNK     0      -5.090   0.219   0.000  0.00  0.00    +0.000 A 
ATOM     23  C8  UNK     0      -5.889   1.280   0.000  0.00  0.00    +0.000 A 
ATOM     24  C9  UNK     0      -7.375   1.107   0.000  0.00  0.00    +0.000 A 
ATOM     25  C10 UNK     0      -7.916  -0.118   0.000  0.00  0.00    +0.000 A 
ATOM     26  N11 UNK     0      -7.061  -1.209   0.000  0.00  0.00    +0.000 N 
ATOM     27  C12 UNK     0      -5.723  -1.092   0.000  0.00  0.00    +0.000 A 
ATOM     28  C13 UNK     0      -7.403  -2.540   0.000  0.00  0.00    +0.000 A 
ATOM     29  C14 UNK     0      -6.238  -3.198   0.000  0.00  0.00    +0.000 A 
ATOM     30  N15 UNK     0      -5.177  -2.231   0.000  0.00  0.00    +0.000 NA
ENDBRANCH  17  22
ENDBRANCH   1  19
TORSDOF 3
