REMARK  3 active torsions:
REMARK  status: ('A' for Active; 'I' for Inactive)
REMARK    1  A    between atoms: C1_1  and  C7_7 
REMARK    2  A    between atoms: C3_3  and  C6_6 
REMARK    3  A    between atoms: C19_19  and  C21_21 
ROOT
HETATM    1  C1          0      -3.617   0.386   0.000  1.00  0.00     0.207 A 
HETATM    2  O2          0      -2.696  -0.598   0.000  1.00  0.00    -0.268 OA
HETATM    3  C3          0      -1.504   0.059   0.000  1.00  0.00     0.205 A 
HETATM    4  N4          0      -1.701   1.316   0.000  1.00  0.00    -0.121 NA
HETATM    5  N5          0      -3.038   1.525   0.000  1.00  0.00    -0.121 NA
ENDROOT
BRANCH   1   6
HETATM    6  C7          0      -5.090   0.219   0.000  1.00  0.00     0.077 A 
HETATM    7  C12         0      -5.723  -1.092   0.000  1.00  0.00     0.151 A 
HETATM    8  N15         0      -5.177  -2.231   0.000  1.00  0.00    -0.225 NA
HETATM    9  N11         0      -7.061  -1.209   0.000  1.00  0.00    -0.288 N 
HETATM   10  C14         0      -6.238  -3.198   0.000  1.00  0.00     0.120 A 
HETATM   11  C13         0      -7.403  -2.540   0.000  1.00  0.00     0.102 A 
HETATM   12  C10         0      -7.916  -0.118   0.000  1.00  0.00     0.082 A 
HETATM   13  C9          0      -7.375   1.107   0.000  1.00  0.00     0.019 A 
HETATM   14  C8          0      -5.889   1.280   0.000  1.00  0.00     0.008 A 
ENDBRANCH   1   6
BRANCH   3  15
HETATM   15  C6          0      -0.176  -0.590   0.000  1.00  0.00     0.046 A 
HETATM   16  C16         0      -0.101  -1.916   0.000  1.00  0.00     0.024 A 
HETATM   17  C17         0       1.207  -2.558   0.000  1.00  0.00     0.099 A 
HETATM   18  N18         0       2.275  -1.864   0.000  1.00  0.00    -0.244 NA
HETATM   19  C19         0       2.250  -0.456   0.000  1.00  0.00     0.082 A 
HETATM   20  C20         0       1.080   0.196   0.000  1.00  0.00     0.023 A 
BRANCH  19  21
HETATM   21  C21         0       3.546   0.258   0.000  1.00  0.00     0.018 A 
HETATM   22  C26         0       3.616   1.761   0.000  1.00  0.00     0.003 A 
HETATM   23  C25         0       4.806   2.383   0.000  1.00  0.00     0.017 A 
HETATM   24  C24         0       5.996   1.548   0.000  1.00  0.00     0.060 A 
HETATM   25  C23         0       5.933   0.244   0.000  1.00  0.00     0.017 A 
HETATM   26  N29         0       7.322   1.916   0.000  1.00  0.00    -0.324 N 
HETATM   27  C27         0       7.288  -0.311   0.000  1.00  0.00     0.020 A 
HETATM   28  C22         0       4.674  -0.465   0.000  1.00  0.00     0.003 A 
HETATM   29  C28         0       8.122   0.743   0.000  1.00  0.00     0.076 A 
HETATM   30  C30         0       7.820   3.261   0.000  1.00  0.00     0.131 C 
ENDBRANCH  19  21
ENDBRANCH   3  15
TORSDOF 3
